**$ENCRYPTED_LIB
**$INTERFACE
* source TLV61048
*
*
*****************************************************************************
* (C) Copyright 2019 Texas Instruments Incorporated. All rights reserved.                                            
*****************************************************************************
** This model is designed as an aid for customers of Texas Instruments.                                             
** TI and its licensors and suppliers make no warranties, either expressed                                           
** or implied, with respect to this model, including the warranties of                                                    
** merchantability or fitness for a particular purpose. The model is                                                      
** provided solely on an "as is" basis. The entire risk as to its quality                                                    
** and performance is with the customer.                                                                                         
*****************************************************************************
*
* Released by: WEBENCH Design Center, Texas Instruments Inc.
* Part: TLV61048
* Date: 3/18/2019
* Model Type: Transient 
* Simulator: PSPICE
* Simulator Version: 16.2
* EVM Order Number: TLV61048
* EVM Users Guide: 
* Datasheet: * Model Version: Final 1.0
* Release to Web.
****************************************************************************
.SUBCKT TLV61048  Vin EN  Freq SW  FB GND 
+ PARAMS: SS_Current=10n

$CDNENCSTART
eee8c5c7a2bc4b01f045f303678664e7916da0bae22e8cb0bba041dd67c69ce448ea70148a9ac1670c8926c1ac5057c8ccfcd77bf87ca9dce068e8137dff34d2
4427e3c5542954f50b336f58cf0aefde7b0fa4e3d84384a8a6da3a7f3f45e4f5879fcf36ba3f74609ea98df35baa0d94d2bbd7e847d638e106ca5c9d845745cf
a5257eba54077ab5021166ac3753b7b847c6b1555096167c6905778cb29a6157e9f90b99f864315415ac5e3a10e475e7f34206d69d989b3948a4282d098735ab
4b6085f2012636675a0aa31c52cddba976617f42cd5d956b9cb34084dd1204eaad05a056b2b91be2e4b88f7e5c9e900e8df9e735d3364f4be1ac43804ac0d649
7ee65a3b6edab6917d71ac369ab0dca86b6c3231624d4dfdff2fe09c4c4984ec31754ab85a19fa359f34460e62f63dfddc6cbca889c46f25aa4f546400d4ca9d
2c669f60a22596813753f74541ef4664a60fd3951de4fe94862d3f1f495cee24c490e300f4cec4f6a8246534fcce200def1d7357d3c4e2f39d6bedf9d0034ac8
2dc370a08fb1ec1a45ad7efbed0e5213761c50ae52f536db597ab7f47e5772d2adb119aa354338baf9c9d71c62bb5ae58160326027b3aa66d38aff4e12555a5d
4427e3c5542954f5a5338b6f4f3d30ab6b6c3231624d4dfdf6445e759be4c5c3c45b4406520a32eeaabe422db3085ed3e1e7687378134ab70b302f65a68ec14d
6cce9bce163d14e43b0bceb0467f290d47c6b1555096167c6905778cb29a6157e9f90b99f864315415ac5e3a10e475e7f34206d69d989b3948a4282d098735ab
cdaa385411811e2733d6b19daa12118a3dca900f018b6d2b39942e54a284a11cd64ed8e6d28832f97b235aa98e43b99794eea45a185b310325153d223963eff0
4427e3c5542954f5b4153c2bd27ac6646b6c3231624d4dfd814e32c2353c00873e7612614c22c304bf757879f45cf0f3051d5c7b2a5d62b6500a5ae83e9c9e36
e0bdb544322f441b16f765d2c415408482bfadafd3f16928dfcc1dc60b86bd1dcb4dec808737f253a5dcb0b7034e73b9bcce8179642b74cef1cae18aded26167
0842962fef8a23ff7637a55980a9f67cbb2cb8032ad0b65fd8fb6aa6f5357af00f090d5b577179629cb34084dd1204eaad05a056b2b91be27ae769cff73b92b1
7ee65a3b6edab691d30c6732f7c4c0196b6c3231624d4dfd5aa954f94b367e8560065a4e4ed29506b3edde7475fb0c3c7b235aa98e43b997984321e14c8116c4
4427e3c5542954f54b2017a789e560f47b1ce6a79d86788515d0e1b2739b0988eee89c215ea4b1812475f947370ca72ff9c9d71c62bb5ae5f2f07a695e0e1095
da9ca0dd8ead7bb50911b5b15e49024536a8238a25b722799cb34084dd1204eaad05a056b2b91be2e4b88f7e5c9e900e8df9e735d3364f4be1ac43804ac0d649
e8ac5e09ea758be714dcf7e5aeeebacdbb1d400b5f5d630fd8e05f0435985a05a8ec28bc4c5bdf9d2f23385a392fc732baeed0ae83070360878ddc5dfac236dc
2dc370a08fb1ec1ad280ceaa9a4df1bf165a23450ad40e2c4a3baf7bef67c2d71fb4a9925387f570f9c9d71c62bb5ae5cdc33ff1bff36051d38aff4e12555a5d
4427e3c5542954f5b90a5674777daf306b6c3231624d4dfdf6445e759be4c5c3c45b4406520a32ee1b16f5e0655b08ec4ae73f9d6dc60a8e4355a92f38224fdd
2dc370a08fb1ec1af144162eba8f62b1761c50ae52f536db597ab7f47e5772d2adb119aa354338baf9c9d71c62bb5ae591e4d54703c30c35d38aff4e12555a5d
4427e3c5542954f5467225d8978eb8617b0fa4e3d84384a884ccfd91b502ca19b743e1104eb8c76aa3e13b7ba8325731eee89c215ea4b181dbdcbabbe1564739
7bb04849f45a367238380075bb5248d83cefeb92882c1b0a01f4c6541da242c11a7101b0efe2a2b9d925c93c9885de5cf50a4a8d6e924cd619768c4b8f8bae95
cdaa385411811e27bfd81d659a09e4b32637e9cac2aa5cea2cecad1ebf804c4bf467148f06ca8e4382bfadafd3f16928dfcc1dc60b86bd1dc96c14f64931905c
9c29eebca015a9a77805af8893975b3fa60fd3951de4fe945b13fa6bc3167b1092f7fd2960dff393d2b4331f8035f4e162d766f77596a54b403ee581ee888250
7ee65a3b6edab691a1375cb7b22201796b6c3231624d4dfd56cf63601a387a49f8954a044c87ecb4e4c9ae8f3d6491d614dcf7e5aeeebacd79ef4a58f6320a52
4427e3c5542954f5bf73876dd70f10317b1ce6a79d86788515d0e1b2739b0988109140c136e327937525ab630ac5f607a6d4e709f5e66ad2f9912abc80a7a39b
ad749984c541704ea1721e4bf66ace6a644126c9831a96bd9cb34084dd1204eaad05a056b2b91be2e4b88f7e5c9e900e8df9e735d3364f4be1ac43804ac0d649
9c29eebca015a9a7cae130d8e22cffe66b6c3231624d4dfdf88a9d813408418fdc6f84f5168902a54a3baf7bef67c2d7edf74c5cfe450b0dd75c018a4c1345a1
24fdfd9bb2e10b0714dcf7e5aeeebacdbb1d400b5f5d630fd8e05f0435985a05a8ec28bc4c5bdf9d2f23385a392fc732baeed0ae83070360878ddc5dfac236dc
2c669f60a22596813016a137105ca47ca60fd3951de4fe94862d3f1f495cee24c4974d7ffbbee8a8f77b49f79a15868d478a87bc5b8e6cf9d38aff4e12555a5d
4427e3c5542954f5b727911d7e733d4d761c50ae52f536db597ab7f47e5772d2a60d9d4ea4740efa977aa12e8ea1263dbaa78b47fb353ab3503811bb8df644a8
2c669f60a22596817c16d27ad9f66a53a60fd3951de4fe94862d3f1f495cee24dbbe5a6608e7196259eb88c1306fb8d6ef1d7357d3c4e2f39d6bedf9d0034ac8
2c669f60a22596815fd2783a7e7c3ae7a60fd3951de4fe945b13fa6bc3167b1092f7fd2960dff3936913197b3063874bef1d7357d3c4e2f39d6bedf9d0034ac8
4427e3c5542954f5f24e70fc0d7765156b6c3231624d4dfd5aa954f94b367e856b5b69a729ed9699f6445e759be4c5c3c45b4406520a32ee0b302f65a68ec14d
2d1a0855731a63d13b0bceb0467f290d47c6b1555096167c6905778cb29a6157e9f90b99f864315415ac5e3a10e475e7f34206d69d989b3948a4282d098735ab
cdaa385411811e2733d6b19daa12118a3dca900f018b6d2b39942e54a284a11cd64ed8e6d28832f97b235aa98e43b99794eea45a185b310325153d223963eff0
37ae6db7cce8ec55565cad40672d4a44ab425f146ee4807186587176039552c4a40509446dc907b499d78f13ddc408d4109140c136e3279350cd6b613dbb8429
b32eae440ae09a4785ca69fda8cf338a7b235aa98e43b99794eea45a185b31032a1a45dfddb7dbcb6d66b636dd071421488fab9a60aeb0daa7d82b16ca3c0891
cdaa385411811e27bfd81d659a09e4b32637e9cac2aa5ceafd49a287c76beca9cf3db11be05038857b235aa98e43b99794eea45a185b310325153d223963eff0
37ae6db7cce8ec555cc2f8cc0157322eab425f146ee48071a40509446dc907b41250727bea9ce61f263d4fe253e0bcabb285a1410567d344eb3737e1253022b6
d2bbd7e847d638e1f9160e96a49a6a0582bfadafd3f16928dfcc1dc60b86bd1dcb4dec808737f253a5dcb0b7034e73b9bcce8179642b74cef1cae18aded26167
cdaa385411811e27bfd81d659a09e4b32637e9cac2aa5ceafd49a287c76beca9cf3db11be05038857b235aa98e43b99794eea45a185b310325153d223963eff0
fdb72b3ac1e2b8679e59f4708e05122e7b0fa4e3d84384a81a39eb9792fc054f27e622a6cbf9a888e1dc69ef62e5506adc6cbca889c46f25aa4f546400d4ca9d
fdb72b3ac1e2b8670e6af95449bc18587b0fa4e3d84384a81a39eb9792fc054fe118a4cc9c6cb351e1dc69ef62e5506adc6cbca889c46f25aa4f546400d4ca9d
37ae6db7cce8ec55496bdbe26f280fe8ab425f146ee480718939a0c3c1452c34cc86fd50e7f8e9a5263d4fe253e0bcab2d8163137004b0a8454cd76b1b9ec9b8
736875a082cb79a7e847dda77d5f94439cb34084dd1204eaad05a056b2b91be2e4b88f7e5c9e900e8df9e735d3364f4b21911c23ae99626db2d4e6b4f069f8de
d8fecafda220f3f58dcea2cdd2d3d5cc9783ae8e4821c68f44286f328a01b5597353264ebf8b05510736b9aea252cd5465bd351ff9bed562d1700304204833e4
37ae6db7cce8ec5539f67a967257b6bdab425f146ee480717714c3fe7b3e2f64766b4e13b2c362a61a39eb9792fc054f27e622a6cbf9a88819e1ae9524a639b1
17d5bb5f76074eab3cefeb92882c1b0a01f4c6541da242c11a7101b0efe2a2b9d925c93c9885de5cf50a4a8d6e924cd626e00100b3e7d432031570200f5119ff
fd80f3b49cb1eb4b2907c7f9d9ea4b6688b96b7c831faa4a4f52237e05fcdaf4b31205aa407e75cd998fd920f4f159aa6824f5bcb04be3e6b5b209b668b9e573
37ae6db7cce8ec557537e6d20fae490bab425f146ee48071a40509446dc907b44d6fbded9cb8fa7d263d4fe253e0bcabf246418e09b534e2d145e40e3136cbcd
88b96b7c831faa4a41097083f6b3a2097b235aa98e43b99794eea45a185b31032a1a45dfddb7dbcb6d66b636dd071421488fab9a60aeb0daa7d82b16ca3c0891
bbf0a766f49a242c2637e9cac2aa5ceafd49a287c76beca9cf3db11be05038857b235aa98e43b99794eea45a185b31032a1a45dfddb7dbcb8320862cb308d43f
37ae6db7cce8ec55777a689a51b7f26eab425f146ee48071109140c136e327937525ab630ac5f607e05f625b95b2acc9873139172dfea4638b955fa4a79481a1
f7f89bd749e849611837349e5ad4a09782bfadafd3f16928dfcc1dc60b86bd1dcb4dec808737f253a5dcb0b7034e73b9bcce8179642b74cef1cae18aded26167
4fbbf7220e4890dece4e49ac163b5b29e8d728dfc39fe48ab71b2b3ed72f0c5060a188d940e604c11933952b4dcad44ca68ba69006c80e09d9eda28d3f69b96f
3267e49cc155bb178695bff3820ed4e63cefeb92882c1b0a01f4c6541da242c11a7101b0efe2a2b9d925c93c9885de5cf50a4a8d6e924cd619768c4b8f8bae95
fdb72b3ac1e2b867df44cf46169eca887b0fa4e3d84384a836bd9086e1bc74b91d643e656df119947714c3fe7b3e2f64f77d9891c227c1164ea2d9e72db15932
fdb72b3ac1e2b867aa17b1051d02b1557b0fa4e3d84384a81a39eb9792fc054f80ce2318f2fc9f628a552686e49ca96d3cefeb92882c1b0a8da3eff8a604caa0
fdb72b3ac1e2b867adff16457ce52fe97b0fa4e3d84384a81a39eb9792fc054f2a4721c8cb9ed2b0e1dc69ef62e5506adc6cbca889c46f25aa4f546400d4ca9d
37ae6db7cce8ec558bd84d844b82e0fbab425f146ee48071a40509446dc907b45a7a707ce4fd9b8a263d4fe253e0bcab735532132e90c03cf152e3e028a6bfa6
75963efd3ee34e16b03201548283802047c6b1555096167c6905778cb29a6157e9f90b99f864315415ac5e3a10e475e7f34206d69d989b3948a4282d098735ab
bbf0a766f49a242c2637e9cac2aa5ceafd49a287c76beca9cf3db11be05038857b235aa98e43b99794eea45a185b31032a1a45dfddb7dbcb8320862cb308d43f
37ae6db7cce8ec55023a9f15417f2ad76b6c3231624d4dfdc3b49566949af6268caedaa735b0d8f745f667a34180d162ae2cf36579c5f18a347d2ca379038385
7133a569ab20de12324c1ceef3612703c489d87c14b9773f0a4cca7e247b9fa89a367cf1da1a37bad73aff0eef81c9454dd1251822b261dc3c1d82ddb6e97e2e
1c7432cde066cf958f40e5933edf304360a188d940e604c11933952b4dcad44ca68ba69006c80e09f1b6bc29d103b9156d913effe3ea9117403ee581ee888250
37ae6db7cce8ec558112c4bdb3148a38ab425f146ee480718c71758530d244619128b59f0c2b1eeca1eb2c4062c3ed2fce4e49ac163b5b29598c2afd19881fdb
a40509446dc907b44d6fbded9cb8fa7d47c6b1555096167c6905778cb29a6157e9f90b99f864315415ac5e3a10e475e7f34206d69d989b3948a4282d098735ab
fd80f3b49cb1eb4b2907c7f9d9ea4b6688b96b7c831faa4a4f52237e05fcdaf4b31205aa407e75cd998fd920f4f159aa6824f5bcb04be3e6b5b209b668b9e573
decca07c6a50d4526576bd2624c167bb7b0fa4e3d84384a8e84e8b194bbeb645da82c694fe9f2819009b319502f3a02ba32a9f5de4fdf71d6c22f8338c178f33
9783ae8e4821c68fa223a4da0518f3d6324c1ceef3612703c489d87c14b9773f0a4cca7e247b9fa89a367cf1da1a37bad73aff0eef81c9456b6c758d0927e52b
8767f397bff4c3a731bbfa71d5efb6fe3ab97347ad0a000b51145b38dfdc0c0e324c1ceef3612703c489d87c14b9773f0a4cca7e247b9fa84416adb4ad462243
decca07c6a50d452675055eabc00a0c77b0fa4e3d84384a8e84e8b194bbeb6451959626b14ac2c74b082291e080bb337a4e8b986ed26a89670e8ee1785e40912
b1342d65a6fc5aff324c1ceef3612703c489d87c14b9773f0a4cca7e247b9fa89a367cf1da1a37bad73aff0eef81c9454dd1251822b261dc3c1d82ddb6e97e2e
fd80f3b49cb1eb4b2907c7f9d9ea4b6688b96b7c831faa4a4f52237e05fcdaf4b31205aa407e75cd998fd920f4f159aa6824f5bcb04be3e6b5b209b668b9e573
decca07c6a50d452fb0b139faf515e4d7b0fa4e3d84384a8e84e8b194bbeb645ef612a4937f9e8770e2dee26e4159156a39412ae4431a64093c080c96d629157
8dcea2cdd2d3d5cc9783ae8e4821c68fbaa78b47fb353ab39cb34084dd1204eaad05a056b2b91be2e4b88f7e5c9e900e8df9e735d3364f4be1ac43804ac0d649
bbf0a766f49a242c2637e9cac2aa5cea2cecad1ebf804c4b55ae1019063fc52d25b1b5dd638810a27b235aa98e43b99794eea45a185b310325153d223963eff0
2daca1a79cb8574fd30c6732f7c4c0196b6c3231624d4dfd0e2dee26e415915634c87ed656c113ad712f7945e273ad0482bfadafd3f1692849003e884fc86af9
2daca1a79cb8574fa1375cb7b22201796b6c3231624d4dfdc35581f57aaa4ba4f98343a749fc43d56ddcead808a83b3514dcf7e5aeeebacd79ef4a58f6320a52
decca07c6a50d4520b336f58cf0aefde1aabf11df8bc7d1692034756a8689de1e0f0ffad2d17592ef24b97df5991417637c25e2ec9e5f28b65f487e89f754f13
908e48cca8ba3d9547c6b1555096167c6905778cb29a6157e9f90b99f864315415ac5e3a10e475e7f34206d69d989b3938cd2756b659beaf324c81682a86ef57
fd80f3b49cb1eb4b2907c7f9d9ea4b6688b96b7c831faa4a4f52237e05fcdaf4b31205aa407e75cd998fd920f4f159aa6824f5bcb04be3e6b5b209b668b9e573
decca07c6a50d452b83f741f500919cf7b0fa4e3d84384a8e84e8b194bbeb645e87cbdaf991ff3bd0e2dee26e4159156d7b25699b11e015b6419d40a5c873f01
24961c9bafa3d4fadc6cbca889c46f25c8ea5b1b9f7e7ece5087d4c1d3a012d93b787a053ffd04aa56946fa54bd2903206ec6274a6e8cd98fa1e888b41468592
d8fecafda220f3f58dcea2cdd2d3d5cc9783ae8e4821c68f44286f328a01b5597353264ebf8b05510736b9aea252cd5465bd351ff9bed562d1700304204833e4
2daca1a79cb8574f7d71ac369ab0dca86b6c3231624d4dfd0e2dee26e4159156739d10b40195b5acac28c78c9e395b99dc6cbca889c46f25aa4f546400d4ca9d
decca07c6a50d452aa7d445c011a6bc57b0fa4e3d84384a8e84e8b194bbeb645d7d5e016e6f2781e0e2dee26e4159156d52dcc1de61ed14650794576b4f63d0d
5e907deffd12c5ffdd06c2baef735cae36806a8e381bf9a09cb34084dd1204eaad05a056b2b91be2e4b88f7e5c9e900e8df9e735d3364f4be1ac43804ac0d649
8767f397bff4c3a731bbfa71d5efb6fe102372497787b35c324c1ceef3612703c489d87c14b9773f0a4cca7e247b9fa89a367cf1da1a37ba7358d3ace0da364c
decca07c6a50d452467225d8978eb8617b0fa4e3d84384a819b025393259a46eaaacce4e62a1918fd2bbd7e847d638e1e776e9b255bda08c8cc849879194c8ab
021166ac3753b7b847c6b1555096167c6905778cb29a6157e9f90b99f864315415ac5e3a10e475e7f34206d69d989b3938cd2756b659beaf324c81682a86ef57
4b6085f2012636675a0aa31c52cddba976617f42cd5d956b9cb34084dd1204eaad05a056b2b91be2e4b88f7e5c9e900e8df9e735d3364f4be1ac43804ac0d649
2daca1a79cb8574f365155b5b4673afe6b6c3231624d4dfda291f9c19b31f6f870215392489123e5712f7945e273ad0482bfadafd3f1692849003e884fc86af9
ab55826b947fd4f88da5b5a7b657ac48ab425f146ee4807157ecbc1afaaa7cfd815800322900dc30b26d0b34d74a1fa37b235aa98e43b997984321e14c8116c4
eceeda5855b14b4d95763e655d2cf0dc706b807646b803710e597b5ec8387071ae5cdabe4224644a385e209fe5793e406a4532e820d540796c22f8338c178f33
9783ae8e4821c68fa223a4da0518f3d6324c1ceef3612703c489d87c14b9773f0a4cca7e247b9fa89a367cf1da1a37bad73aff0eef81c9456b6c758d0927e52b
8767f397bff4c3a731bbfa71d5efb6fe102372497787b35c324c1ceef3612703c489d87c14b9773f0a4cca7e247b9fa89a367cf1da1a37ba7358d3ace0da364c
eceeda5855b14b4dbc4d8aee6a19b888706b807646b80371117e667c2fa0f4e36dea474b790f91b27d220450b1e5dc0f1fd9f8e31307b83d4c0637d2f5626cef
f27066be0119da8e97abe3b0d99a612c14dcf7e5aeeebacdbb1d400b5f5d630fd8e05f0435985a05a8ec28bc4c5bdf9d2f23385a392fc732de71e78a3082dc89
fd80f3b49cb1eb4b2907c7f9d9ea4b6688b96b7c831faa4a4f52237e05fcdaf4b31205aa407e75cd998fd920f4f159aa6824f5bcb04be3e6b5b209b668b9e573
ab55826b947fd4f83c1ddafa3f08b04bab425f146ee4807157ecbc1afaaa7cfd9e3f7ebb08f74e773c62459284d4da03dc6cbca889c46f25aa4f546400d4ca9d
ab55826b947fd4f8b19ba0626fedf728ab425f146ee4807157ecbc1afaaa7cfd45a7677c3c64af91985582d63895a4a047c6b1555096167c1eb533481225eb79
ab55826b947fd4f8d50dcf7e7bb623f5ab425f146ee4807157ecbc1afaaa7cfd9d11a59b5b499c59969be5f61c211d83324c1ceef36127032c29faf797135fb1
eceeda5855b14b4de8d9bfee37715b6e706b807646b80371117e667c2fa0f4e36dea474b790f91b26ef35da96c9bdf191fd9f8e31307b83d03c713a2d2ca5919
0e597b5ec8387071ae5cdabe4224644a47c6b1555096167c6905778cb29a6157e9f90b99f864315415ac5e3a10e475e7f34206d69d989b3948a4282d098735ab
fd80f3b49cb1eb4b2907c7f9d9ea4b6688b96b7c831faa4a4f52237e05fcdaf4b31205aa407e75cd998fd920f4f159aa6824f5bcb04be3e6b5b209b668b9e573
595343bce17d4cddf1a25634666dbab75b13fa6bc3167b10198b400439b00f10f881904f85ee8f3080d42e2c96a2c344419b778d9b550ce8403ee581ee888250
5429b37003151bc49014222ed69b02fab2e06780cf58a8225bb8a4a8a7dca93adc6cbca889c46f25c8ea5b1b9f7e7ece5087d4c1d3a012d9a1c70de1c8e8cac0
595343bce17d4cdd57b48362600bc9746b6c3231624d4dfd7fcb3cd511bd72f5dd2a5a7c52d9b1d9a036c86d9c9684b041097083f6b3a2094ea2d9e72db15932
bc882f0190e9b7501aa7e5d5ba9452e32531ce9df5eb06035fdff4e4e4e2ec2be20495ff60f49921904852592d4620aa710f626c2faf14a6e068e8137dff34d2
595343bce17d4cdd7a32a286d5fde808b2e06780cf58a82253adb98278c1c1a7254f40a776eead535fdff4e4e4e2ec2b9ca5ed42eb083b53ec830fabf8a830ed
9144e1466ab4b97aef8113f705cef3b2324c1ceef3612703c489d87c14b9773f0a4cca7e247b9fa89a367cf1da1a37bad73aff0eef81c9456b6c758d0927e52b
860e18d66c3d1919bae745001a9f316c08e79cbf8de54de3f61ad1b3a86a872b0bef14d38757a805050d48da58fab8c21f6ddf457770e98ed9de4b16f63cb4fb
710f626c2faf14a682bfadafd3f16928dfcc1dc60b86bd1dcb4dec808737f253a5dcb0b7034e73b9bcce8179642b74ce5b713a197a90af9c008b1f707732ea42
860e18d66c3d1919bae745001a9f316cddb4b29aaeb56c85b9191fcc8e4aed48d419523183822fb8ff1ed53a29c85a99e7c6ea3c94ecc45dbd9536fdc90d3e3e
62d766f77596a54b324c1ceef3612703c489d87c14b9773f0a4cca7e247b9fa89a367cf1da1a37bad73aff0eef81c9454dd1251822b261dc3c1d82ddb6e97e2e
8dd8809d8ac0a4a1bd896fa49552098f34c73dcbf92dd872b9191fcc8e4aed48d419523183822fb8de871e16b0c2b01a4f624c418f098f5319e55a9582680d18
184d4ecf5188ea441b16c849c8b84552dc6cbca889c46f25c8ea5b1b9f7e7ece5087d4c1d3a012d93b787a053ffd04aa56946fa54bd29032e282d048116801be
0418cc75e3d7cf68710f626c2faf14a682bfadafd3f16928dfcc1dc60b86bd1dcb4dec808737f253a5dcb0b7034e73b9bcce8179642b74cef1cae18aded26167
860e18d66c3d1919bae745001a9f316c525f4881cdcee43cf61ad1b3a86a872b0bef14d38757a8058a9f22e7ac644d56df9261eb70d697dcd9de4b16f63cb4fb
710f626c2faf14a682bfadafd3f16928dfcc1dc60b86bd1dcb4dec808737f253a5dcb0b7034e73b9bcce8179642b74ce5b713a197a90af9c008b1f707732ea42
8dd8809d8ac0a4a1bd896fa49552098f752f711301760933428f8e94665ed032664df3b5ecb1864949bcb2e9b7241eb4644126c9831a96bd503811bb8df644a8
95c03356b13eab5ebebb79fca90293e076d3593601f89b20de0bbdae7aed421c693598fd4c45f95b4c0a3fe8d7baa2927d22f7d0f7e206ce4ea2d9e72db15932
e1638bd83b967ef97add5c1e32496ddc10329ae2c21fec57a1a671ffbf7d51943cefeb92882c1b0a01f4c6541da242c11a7101b0efe2a2b9917b33f9ebec0953
8dd8809d8ac0a4a1bd896fa49552098faf62c7e801e29edbb9191fcc8e4aed48d419523183822fb855a398bdcddae91e95285cd232a8d80dbd6e0240e530e0d3
8dd8809d8ac0a4a1bd896fa49552098f628e6c2a84cc65ddb9191fcc8e4aed48d419523183822fb8658bc05dd7a367fb4f624c418f098f5319e55a9582680d18
b3b7c84dd2a3fc051b16c849c8b84552dc6cbca889c46f25c8ea5b1b9f7e7ece5087d4c1d3a012d93b787a053ffd04aa56946fa54bd29032e282d048116801be
0418cc75e3d7cf68710f626c2faf14a682bfadafd3f16928dfcc1dc60b86bd1dcb4dec808737f253a5dcb0b7034e73b9bcce8179642b74cef1cae18aded26167
95c03356b13eab5ebebb79fca90293e0c70c98f10f4caf16d569513a29bdf6fd0bef14d38757a805ea47f772a519febc0bef14d38757a805a1083021621a0fae
87a17d44d51937d4324c1ceef3612703c489d87c14b9773f0a4cca7e247b9fa89a367cf1da1a37bad73aff0eef81c9454dd1251822b261dc3c1d82ddb6e97e2e
e1638bd83b967ef97add5c1e32496ddc10329ae2c21fec57bacee7495f7292323cefeb92882c1b0a01f4c6541da242c11a7101b0efe2a2b9917b33f9ebec0953
860e18d66c3d1919bae745001a9f316ca84ecbc7159c51adf61ad1b3a86a872b0bef14d38757a8057940378bcaa23cae0a457d5343e11360e89729e5d38ef58f
8dd8809d8ac0a4a1bd896fa49552098f5bd1d958b85c6337f61ad1b3a86a872b0bef14d38757a805050d48da58fab8c259349d3bd4ce718cd9de4b16f63cb4fb
710f626c2faf14a682bfadafd3f16928dfcc1dc60b86bd1dcb4dec808737f253a5dcb0b7034e73b9bcce8179642b74ce5b713a197a90af9c008b1f707732ea42
95c03356b13eab5eb75c8b172c20fb1beb8784877639638370cf577a2ed3e0a94c0a3fe8d7baa292f0859511f502e4a00a94b15b03ac188cc2cd941761b86298
d80d4280c38deea8b9c672ae94a42e76dc6cbca889c46f25c8ea5b1b9f7e7ece5087d4c1d3a012d93b787a053ffd04aa56946fa54bd29032e282d048116801be
1c7432cde066cf958f40e5933edf304360a188d940e604c11933952b4dcad44ca68ba69006c80e09f1b6bc29d103b9156d913effe3ea9117403ee581ee888250
8dd8809d8ac0a4a1bd896fa49552098f976633e3a662b0a8b9191fcc8e4aed48d419523183822fb8de871e16b0c2b01a0f38dd4290a7a25362d766f77596a54b
95c03356b13eab5eb75c8b172c20fb1b239bdbe658d21d0070cf577a2ed3e0a94c0a3fe8d7baa292f6711842f7da01e04c0a3fe8d7baa292816a1366f21367f8
c7a131158db1dc68d419523183822fb8312cc7ebd2402cf7d9ec61bb0b49b22275963efd3ee34e16b0320154828380204e26894942562954756dacbeca4bc899
2cecad1ebf804c4bf467148f06ca8e4382bfadafd3f16928dfcc1dc60b86bd1dcb4dec808737f253a5dcb0b7034e73b9bcce8179642b74cef1cae18aded26167
4c238ad43f51cf243753f74541ef4664797a0443b602e0557714c3fe7b3e2f640aec75690ffdf0ba8128d567d8fde99900d3e0b087c73744d1700304204833e4
9335648e05b50e75a1375cb7b22201796b6c3231624d4dfd81af99a4cd5fbbd19697fb1c0e2e2361712f7945e273ad0482bfadafd3f1692849003e884fc86af9
f199dd2762724f4d45ad7efbed0e5213165a23450ad40e2ca2a247bce21582cca7829375bcf71bd635581e2e1d6bbf47190ad404fc5ca3c9b595c6014d72c502
4b416be3024098dbd1f4c7b0db0b1f24256c214b552316eac67d4079a5f18d4c9336283366c2a95288ccbde19e32cce5a6a4155d31a43583816101ba5bfa56fc
e564dfe7b3aa42536bcb149cd7488aa13cefeb92882c1b0a01f4c6541da242c11a7101b0efe2a2b9d925c93c9885de5cf50a4a8d6e924cd619768c4b8f8bae95
4b416be3024098dbb4153c2bd27ac6646b6c3231624d4dfd814e32c2353c0087c67d4079a5f18d4c287c4cf2a7aa0968f209d0b7085b5ea8dd054e3fd98797a0
2463c9c284007516c720cc8fc43819a5324c1ceef3612703c489d87c14b9773f0a4cca7e247b9fa89a367cf1da1a37bad73aff0eef81c9456b6c758d0927e52b
cdaa385411811e2733d6b19daa12118a05e4430f93eaf1199a6d1285b14383a0fcde78aa9791cd5d14dcf7e5aeeebacdbb1d400b5f5d630f3072142a03fde1a5
f113acc8ce3afa6d837dbdd416b2af6734e7dc8f3d4c3a04f209d0b7085b5ea832d2879bce1a70d75dba0e20b05a8b854a82cc43914bd2d5956711648fdaafb1
4b416be3024098dbf26747aa9af501935e01445b97c31b9613f068b43cd96f412075fd2062f0849b6f65166383794a9fe564dfe7b3aa4253fd553200703f21b4
4b416be3024098dbb727911d7e733d4d165a23450ad40e2c2566119ee1fd4f4e6659d0c0245c215a96cc57eb2df8d63495d7fcca0b5012ccd1700304204833e4

$CDNENCFINISH
.ends TLV61048

**************************************************************
.subckt Err_AMP_TOP_EA_S16 1 2 3 4  
$CDNENCSTART
eee8c5c7a2bc4b01f045f303678664e7916da0bae22e8cb0bba041dd67c69ce448ea70148a9ac1670c8926c1ac5057c8ccfcd77bf87ca9dce068e8137dff34d2
0c1c0565653c1e3c4b2017a789e560f431820e631d1d1d741cf588206b92e9d2645f79a93b344abc47c6b1555096167c6905778cb29a6157a2d5a6446efdad0e
344fdc8506da9c04d0df36a08c98ab586f31076d2b37e96baa35006d782c6ce9dc6cbca889c46f25c8ea5b1b9f7e7ece5087d4c1d3a012d9a1c70de1c8e8cac0
1e7e75f62a07f7b1bbcb463bf6330e44b4298302446ffc3940d18837ba8338220ffb76e2ddf4497b605c12edf10ed5973a27a84b1cead84e9adc56f03a8d243c
8797abf02fb63529a857e0c50156fae114dcf7e5aeeebacdbb1d400b5f5d630fd8e05f0435985a05a8ec28bc4c5bdf9d2f23385a392fc732de71e78a3082dc89
$CDNENCFINISH
.ends Err_AMP_TOP_EA_S16

.subckt Err_AMP_TOP_EA_S17 1 2 3 4  
$CDNENCSTART
eee8c5c7a2bc4b01f045f303678664e7916da0bae22e8cb0bba041dd67c69ce448ea70148a9ac1670c8926c1ac5057c8ccfcd77bf87ca9dce068e8137dff34d2
0c1c0565653c1e3cbf73876dd70f103131820e631d1d1d741cf588206b92e9d2a1721e4bf66ace6a47c6b1555096167c6905778cb29a6157a2d5a6446efdad0e
344fdc8506da9c04f7cb739934590f6e6f31076d2b37e96baa35006d782c6ce9dc6cbca889c46f25c8ea5b1b9f7e7ece5087d4c1d3a012d9a1c70de1c8e8cac0
1e7e75f62a07f7b1bbcb463bf6330e44b4298302446ffc392adc7c84e03e5dff0ffb76e2ddf4497b605c12edf10ed5973a27a84b1cead84e9adc56f03a8d243c
8797abf02fb63529a857e0c50156fae114dcf7e5aeeebacdbb1d400b5f5d630fd8e05f0435985a05a8ec28bc4c5bdf9d2f23385a392fc732de71e78a3082dc89
$CDNENCFINISH
.ends Err_AMP_TOP_EA_S17

.subckt Low_side_Mos_TOP_MOS_S16 1 2 3 4  
$CDNENCSTART
eee8c5c7a2bc4b01f045f303678664e7916da0bae22e8cb0bba041dd67c69ce448ea70148a9ac1670c8926c1ac5057c8ccfcd77bf87ca9dce068e8137dff34d2
1aec16e6bf634726f1a25634666dbab746b92e86e8aaa0bafcb4c862b8a216011cab4cf419408f34b7d840e9dfb0d84382bfadafd3f1692849003e884fc86af9
8e7aa991ca02ff2340715f88fb0a39501852d2bae25628728884162488a379777b235aa98e43b99794eea45a185b31032a1a45dfddb7dbcb8320862cb308d43f
1e7e75f62a07f7b1bbcb463bf6330e44b2e06780cf58a82281504dfe0fd16a49e75adc0303e81669cb43e85d9037ba9d0c2080c9c603f2a103d6b66faff88b74
a070f04ef472162c47c6b1555096167c6905778cb29a6157e9f90b99f864315415ac5e3a10e475e7f34206d69d989b3938cd2756b659beaf324c81682a86ef57
$CDNENCFINISH
.ends Low_side_Mos_TOP_MOS_S16

.subckt Low_side_Mos_TOP_MOS_F2 1 2 3 4  
$CDNENCSTART
eee8c5c7a2bc4b01f045f303678664e7916da0bae22e8cb0bba041dd67c69ce448ea70148a9ac1670c8926c1ac5057c8ccfcd77bf87ca9dce068e8137dff34d2
6c390823f5f1f8407a32a286d5fde80831820e631d1d1d74986d6dac1c35cff05c0086074dcf5fb347c6b1555096167c6905778cb29a6157a2d5a6446efdad0e
7acfe79834b953c087940e42d9e0a2ec6f31076d2b37e96b3a7bc5327c69eeafdc6cbca889c46f25c8ea5b1b9f7e7ece5087d4c1d3a012d9a1c70de1c8e8cac0
$CDNENCFINISH
.ends Low_side_Mos_TOP_MOS_F2

.subckt Off_Timer_TOP_Offtimer_S15 1 2 3 4  
$CDNENCSTART
eee8c5c7a2bc4b01f045f303678664e7916da0bae22e8cb0bba041dd67c69ce448ea70148a9ac1670c8926c1ac5057c8ccfcd77bf87ca9dce068e8137dff34d2
c2a1922321403919bebb79fca90293e06af56f2fcb564d81db85091e4342bca30136e22a32a96d0a3a982a51b3368a926426ca1f3951a289d1700304204833e4
057295f8909babb5d419523183822fb8f98d1d68a4088e456d5435b876a13b8c952fa816c1beb6f282bfadafd3f16928dfcc1dc60b86bd1dc96c14f64931905c
1e7e75f62a07f7b1bbcb463bf6330e444f624c418f098f53a9b10d13a1be08fefda7dca219ba5263b67527f318e3d85cc847cbfb30d274ceed6a434c5ce3f38d
6d1d488167eae22234537391688cf6433cefeb92882c1b0a01f4c6541da242c11a7101b0efe2a2b9d925c93c9885de5cf50a4a8d6e924cd619768c4b8f8bae95
$CDNENCFINISH
.ends Off_Timer_TOP_Offtimer_S15

.subckt Off_Timer_TOP_Offtimer_S16 1 2 3 4  
$CDNENCSTART
eee8c5c7a2bc4b01f045f303678664e7916da0bae22e8cb0bba041dd67c69ce448ea70148a9ac1670c8926c1ac5057c8ccfcd77bf87ca9dce068e8137dff34d2
c2a1922321403919bebb79fca90293e0525f4881cdcee43cdb85091e4342bca30136e22a32a96d0a3a982a51b3368a92f4bca0d2849fa299d1700304204833e4
057295f8909babb5d419523183822fb888522aa2315af6d86d5435b876a13b8c952fa816c1beb6f282bfadafd3f16928dfcc1dc60b86bd1dc96c14f64931905c
1e7e75f62a07f7b1bbcb463bf6330e444f624c418f098f531597edb8bb2e9eacfda7dca219ba5263b67527f318e3d85c7b1dc01a1b196efbed6a434c5ce3f38d
6d1d488167eae22234537391688cf6433cefeb92882c1b0a01f4c6541da242c11a7101b0efe2a2b9d925c93c9885de5cf50a4a8d6e924cd619768c4b8f8bae95
$CDNENCFINISH
.ends Off_Timer_TOP_Offtimer_S16

.subckt Soft_Start_TOP_SS_S14 1 2 3 4  
$CDNENCSTART
eee8c5c7a2bc4b01f045f303678664e7916da0bae22e8cb0bba041dd67c69ce448ea70148a9ac1670c8926c1ac5057c8ccfcd77bf87ca9dce068e8137dff34d2
f087c516d410059ad1f4c7b0db0b1f2431820e631d1d1d741cf588206b92e9d2bfec432e43d85c7147c6b1555096167c6905778cb29a6157a2d5a6446efdad0e
ea89d79fd48f52c3c5f84410e66fa2bb6f31076d2b37e96baa35006d782c6ce9dc6cbca889c46f25c8ea5b1b9f7e7ece5087d4c1d3a012d9a1c70de1c8e8cac0
1e7e75f62a07f7b1bbcb463bf6330e447f364f843d325f62eee56053bd4595260ffb76e2ddf4497b2b7447af30eda7a959977bd08e2ed06ab6e7882d0677e95d
2818a0514d434f1a9a87dce6f28c1cab9cb34084dd1204eaad05a056b2b91be2e4b88f7e5c9e900e8df9e735d3364f4b21911c23ae99626db2d4e6b4f069f8de
$CDNENCFINISH
.ends Soft_Start_TOP_SS_S14

.subckt Soft_Start_TOP_SS_S15 1 2 3 4  
$CDNENCSTART
eee8c5c7a2bc4b01f045f303678664e7916da0bae22e8cb0bba041dd67c69ce448ea70148a9ac1670c8926c1ac5057c8ccfcd77bf87ca9dce068e8137dff34d2
f087c516d410059af26747aa9af5019331820e631d1d1d741cf588206b92e9d2216f7d0ca1f2d1a647c6b1555096167c6905778cb29a6157a2d5a6446efdad0e
ea89d79fd48f52c3faabf0aff2c238cc6f31076d2b37e96baa35006d782c6ce9dc6cbca889c46f25c8ea5b1b9f7e7ece5087d4c1d3a012d9a1c70de1c8e8cac0
1e7e75f62a07f7b1bbcb463bf6330e447f364f843d325f6236e16aecf82befac0ffb76e2ddf4497b2b7447af30eda7a959977bd08e2ed06ab6e7882d0677e95d
2818a0514d434f1a9a87dce6f28c1cab9cb34084dd1204eaad05a056b2b91be2e4b88f7e5c9e900e8df9e735d3364f4b21911c23ae99626db2d4e6b4f069f8de
$CDNENCFINISH
.ends Soft_Start_TOP_SS_S15

***************************************************************************************************************************************************************************************************************************************************************
***********************************************************************************************************************************************************************
** Wrapper definitions for AA legacy support **

.subckt d_d 1 2
$CDNENCSTART
eee8c5c7a2bc4b01f045f303678664e7916da0bae22e8cb0bba041dd67c69ce448ea70148a9ac1670c8926c1ac5057c8ccfcd77bf87ca9dce068e8137dff34d2
1580a2664af5c9b71dffb53947c4a05082bfadafd3f16928dfcc1dc60b86bd1dcb4dec808737f253a5dcb0b7034e73b9bcce8179642b74cef1cae18aded26167
0697746efb67a3a341e6e617f9adb744dc6cbca889c46f25c8ea5b1b9f7e7ece5087d4c1d3a012d93b787a053ffd04aa56946fa54bd29032e282d048116801be
f7a854a98d732f8b65b706867a9136e614dcf7e5aeeebacdbb1d400b5f5d630fd8e05f0435985a05a8ec28bc4c5bdf9d2f23385a392fc732de71e78a3082dc89
39c84b0c9f72e0078e024cbd033ee0af14dcf7e5aeeebacdbb1d400b5f5d630fd8e05f0435985a05a8ec28bc4c5bdf9d2f23385a392fc732de71e78a3082dc89
0660a0f5c4a1d536aad0cae5ebf3019a9cb34084dd1204eaad05a056b2b91be2e4b88f7e5c9e900e8df9e735d3364f4b21911c23ae99626db2d4e6b4f069f8de
eff9bf1926aa5ce1324c1ceef3612703c489d87c14b9773f0a4cca7e247b9fa89a367cf1da1a37bad73aff0eef81c9454dd1251822b261dc3c1d82ddb6e97e2e
$CDNENCFINISH
.ends d_d
************************************************************

.subckt d_d1 1 2

$CDNENCSTART
eee8c5c7a2bc4b01f045f303678664e7916da0bae22e8cb0bba041dd67c69ce448ea70148a9ac1670c8926c1ac5057c8ccfcd77bf87ca9dce068e8137dff34d2
1580a2664af5c9b71dffb53947c4a05082bfadafd3f16928dfcc1dc60b86bd1dcb4dec808737f253a5dcb0b7034e73b9bcce8179642b74cef1cae18aded26167

0697746efb67a3a341e6e617f9adb744dc6cbca889c46f25c8ea5b1b9f7e7ece5087d4c1d3a012d93b787a053ffd04aa56946fa54bd29032e282d048116801be
f7a854a98d732f8b65b706867a9136e614dcf7e5aeeebacdbb1d400b5f5d630fd8e05f0435985a05a8ec28bc4c5bdf9d2f23385a392fc732de71e78a3082dc89
39c84b0c9f72e0078e024cbd033ee0af14dcf7e5aeeebacdbb1d400b5f5d630fd8e05f0435985a05a8ec28bc4c5bdf9d2f23385a392fc732de71e78a3082dc89
0660a0f5c4a1d536aad0cae5ebf3019a9cb34084dd1204eaad05a056b2b91be2e4b88f7e5c9e900e8df9e735d3364f4b21911c23ae99626db2d4e6b4f069f8de
eff9bf1926aa5ce1324c1ceef3612703c489d87c14b9773f0a4cca7e247b9fa89a367cf1da1a37bad73aff0eef81c9454dd1251822b261dc3c1d82ddb6e97e2e

$CDNENCFINISH
.ends d_d1
*$

****************************************************************
.model d_d1 d 
$CDNENCSTART