1
9
.tran 10p 1u 0
2
1
V(/in)
 
1
V(/out)
 
